LTspice 24.0.9 for Windows
Circuit: * C:\Users\gn244\Desktop\V Semester\LT Spice Lab 3rd Year\Lab Project 1\Two Stage Fully Differential Amplifier.asc
Start Time: Tue Oct 22 23:31:04 2024
solver = Normal
Maximum thread count: 12
tnom = 27
temp = 27
method = modified trap
Warning: Pd = 0 is less than W.
Warning: Ps = 0 is less than W.
Warning: Pd = 0 is less than W.
Warning: Ps = 0 is less than W.
Warning: Pd = 0 is less than W.
Warning: Ps = 0 is less than W.
Warning: Pd = 0 is less than W.
Warning: Ps = 0 is less than W.
Direct Newton iteration for .op point succeeded.
Total elapsed time: 0.357 seconds.

